workspace/SGsim/simulations/example/Circ1_Power_seq_kVA.txt

SYMMETRICAL COMPONENT POWERS BY CIRCUIT ELEMENT (first 3 phases)                                     Excess Power

Element           Term    P1(kW)   Q1(kvar)       P2         Q2      P0      Q0       P_Norm      Q_Norm     P_Emerg    Q_Emerg

"Vsource.SOURCE"   1      -52.7       -1.4       -0.0       -0.0    -0.0    -0.0
"Vsource.SOURCE"   2        0.0        0.0        0.0        0.0     0.0     0.0
"Transformer.TR1"  1       52.7        1.4        0.0        0.0     0.0     0.0        0.0        0.0        0.0        0.0
"Transformer.TR1"  2      -52.7       -0.7       -0.0       -0.0    -0.0    -0.0
"Line.L1"          1       52.7        0.7        0.0        0.0     0.0     0.0        0.0        0.0        0.0        0.0
"Line.L1"          2      -50.1       -0.1       -0.0        0.0    -0.0     0.0
"Line.L2"          1       45.1        0.1        0.0        0.0     0.0    -0.0        0.0        0.0        0.0        0.0
"Line.L2"          2      -45.1       -0.0       -0.0        0.0    -0.0     0.0
"Line.L3"          1       40.1        0.0        0.0       -0.0     0.0    -0.0        0.0        0.0        0.0        0.0
"Line.L3"          2      -40.0       -0.0       -0.0        0.0    -0.0     0.0
"Line.L4"          1       35.0        0.0        0.0       -0.0     0.0    -0.0        0.0        0.0        0.0        0.0
"Line.L4"          2      -35.0       -0.0       -0.0        0.0    -0.0     0.0
"Line.L5"          1       30.0        0.0        0.0       -0.0     0.0    -0.0        0.0        0.0        0.0        0.0
"Line.L5"          2      -29.9       -0.0       -0.0        0.0    -0.0     0.0
"Line.L6"          1       25.0        0.0        0.0       -0.0     0.0    -0.0        0.0        0.0        0.0        0.0
"Line.L6"          2      -24.9       -0.0       -0.0        0.0    -0.0     0.0
"Line.L7"          1       20.0        0.0        0.0       -0.0     0.0    -0.0        0.0        0.0        0.0        0.0
"Line.L7"          2      -20.0       -0.0       -0.0        0.0    -0.0     0.0
"Line.L8"          1       15.0        0.0        0.0       -0.0     0.0    -0.0        0.0        0.0        0.0        0.0
"Line.L8"          2      -15.0       -0.0       -0.0        0.0    -0.0     0.0
"Line.L9"          1       10.0        0.0        0.0       -0.0     0.0    -0.0        0.0        0.0        0.0        0.0
"Line.L9"          2      -10.0       -0.0       -0.0        0.0    -0.0     0.0
"Line.L10"         1        5.0        0.0        0.0       -0.0     0.0    -0.0        0.0        0.0        0.0        0.0
"Line.L10"         2       -5.0       -0.0       -0.0        0.0    -0.0     0.0
"Load.LD1"         1        5.0        0.0        0.0       -0.0     0.0    -0.0
"Load.LD2"         1        5.0        0.0        0.0       -0.0     0.0    -0.0
"Load.LD3"         1        5.0        0.0        0.0       -0.0     0.0    -0.0
"Load.LD4"         1        5.0        0.0        0.0       -0.0     0.0    -0.0
"Load.LD5"         1        5.0        0.0        0.0       -0.0     0.0    -0.0
"Load.LD6"         1        5.0        0.0        0.0       -0.0     0.0    -0.0
"Load.LD7"         1        5.0        0.0        0.0       -0.0     0.0    -0.0
"Load.LD8"         1        5.0        0.0        0.0       -0.0     0.0    -0.0
"Load.LD9"         1        5.0        0.0        0.0       -0.0     0.0    -0.0
"Load.LD10"        1        5.0        0.0        0.0       -0.0     0.0    -0.0
"PVSystem.PV1"     1        0.0        0.0        0.0        0.0     0.0     0.0
"PVSystem.PV2"     1        0.0        0.0        0.0        0.0     0.0     0.0
"PVSystem.PV3"     1        0.0        0.0        0.0        0.0     0.0     0.0
"PVSystem.PV4"     1        0.0        0.0        0.0        0.0     0.0     0.0
"Storage.BAT1"     1        0.1        0.0        0.0       -0.0     0.0    -0.0

Total Circuit Losses =    2.9 +j    1.4
